/*--------------------------------*- C++ -*----------------------------------*\
| =========                 |                                                 |
| \\      /  F ield         | OpenFOAM: The Open Source CFD Toolbox           |
|  \\    /   O peration     | Version:  2.1.1                                 |
|   \\  /    A nd           | Web:      www.OpenFOAM.org                      |
|    \\/     M anipulation  |                                                 |
\*---------------------------------------------------------------------------*/
FoamFile
{
    version     2.0;
    format      ascii;
    class       dictionary;
    object      blockMeshDict;
}
// * * * * * * * * * * * * * * * * * * * * * * * * * * * * * * * * * * * * * //

convertToMeters 1;

vertices
(
    (-2 0 0  )
    ( 4 0 0  )
    ( 4 1 0  )
    (-2 1 0  )
    (-2 0 0.1)
    ( 4 0 0.1)
    ( 4 1 0.1)
    (-2 1 0.1)
);

blocks
(
    hex (0 1 2 3 4 5 6 7) (600 100 1) simpleGrading (1 1 1)
);

edges
(
);

boundary
(
    fixedWalls
    {
        type wall;
        faces
        (
            (0 1 5 4)
        );
    }
    slipWall
    {
        type patch;
        faces
        (
            (3 7 6 2)
        );
    }
    inlet
    {
        type patch;
        faces
        (
            (0 4 7 3)
        );
    }
    outlet
    {
        type patch;
        faces
        (
            (1 2 6 5)
        );
    }
    frontAndBack
    {
        type empty;
        faces
        (
            (3 2 1 0)
            (4 5 6 7)
        );
    }
);

mergePatchPairs
(
);

// ************************************************************************* //
