/*--------------------------------*- C++ -*----------------------------------*\
| =========                 |                                                 |
| \\      /  F ield         | OpenFOAM: The Open Source CFD Toolbox           |
|  \\    /   O peration     | Version:  2.0.1                                 |
|   \\  /    A nd           | Web:      www.OpenFOAM.com                      |
|    \\/     M anipulation  |                                                 |
\*---------------------------------------------------------------------------*/
FoamFile
{
    version     2.0;
    format      ascii;
    class       dictionary;
    location    "system";
    object      fvSchemes;
}
// * * * * * * * * * * * * * * * * * * * * * * * * * * * * * * * * * * * * * //

ddtSchemes
{
    default            Euler;
}

gradSchemes
{
    default            Gauss linear;
}

divSchemes
{
    default            none;
    div(phi,U)         Gauss limitedLinear 0.6;
    div(phi,k)         Gauss upwind;
    div(phi,omega)     Gauss upwind;
    div((nuEff*dev(T(grad(U)))))  Gauss linear;
    div((nuEff*dev2(T(grad(U))))) Gauss linear;
}

laplacianSchemes
{
    default            Gauss linear corrected;
}

interpolationSchemes
{
    default            linear;
}

snGradSchemes
{
    default            corrected;
}

wallDist
{
    method             Poisson;
    nRequired          true;
}

fluxRequired
{
    default            no;
    p;
}

// ************************************************************************* //
