/*--------------------------------*- C++ -*----------------------------------*\
| =========                 |                                                 |
| \\      /  F ield         | OpenFOAM: The Open Source CFD Toolbox           |
|  \\    /   O peration     | Version:  2.1.1                                 |
|   \\  /    A nd           | Web:      www.OpenFOAM.org                      |
|    \\/     M anipulation  |                                                 |
\*---------------------------------------------------------------------------*/
FoamFile
{
    version     2.0;
    format      ascii;
    class       dictionary;
    location    "system";
    object      fvSolution;
}
// * * * * * * * * * * * * * * * * * * * * * * * * * * * * * * * * * * * * * //

solvers
{
    p
    {
        solver          GAMG;
        smoother        GaussSeidel;
        preSweeps       0;
        postSweeps      2;
        cacheAgglomeration true;
        agglomerator    faceAreaPair;
        nCellsInCoarsestLevel 20;
        mergeLevels     3;
        tolerance       1e-09;
        relTol          1e-05;
    }
    U
    {
        solver          PBiCG;
        preconditioner  DILU;
        tolerance       1e-09;
        relTol          1e-05;
    }
}

SIMPLE
{
    nNonOrthogonalCorrectors 0;
}

relaxationFactors
{
    p     0.3;
    U     0.7;
}

// ************************************************************************* //
