/*--------------------------------*- C++ -*----------------------------------*\
| =========                 |                                                 |
| \\      /  F ield         | OpenFOAM: The Open Source CFD Toolbox           |
|  \\    /   O peration     | Version:  2.1.x                                 |
|   \\  /    A nd           | Web:      www.OpenFOAM.org                      |
|    \\/     M anipulation  |                                                 |
\*---------------------------------------------------------------------------*/
FoamFile
{
    version     2.0;
    format      ascii;
    class       dictionary;
    object      blockMeshDict;
}
// * * * * * * * * * * * * * * * * * * * * * * * * * * * * * * * * * * * * * //

convertToMeters 1;

vertices
(
    (-1.5 -1.5 0) // 0
    (-1.5 -0.5 0) // 1
    (-1.5  0.5 0) // 2
    (-1.5  1.5 0) // 3
    (-0.5 -1.5 0) // 4
    (-0.5 -0.5 0) // 5
    (-0.5  0.5 0) // 6
    (-0.5  1.5 0) // 7
    ( 0.5 -1.5 0) // 8
    ( 0.5 -0.5 0) // 9
    ( 0.5  0.5 0) //10
    ( 0.5  1.5 0) //11
    ( 1.5 -1.5 0) //12
    ( 1.5 -0.5 0) //13
    ( 1.5  0.5 0) //14
    ( 1.5  1.5 0) //15
    (-1.5 -1.5 1) //16
    (-1.5 -0.5 1) //17
    (-1.5  0.5 1) //18
    (-1.5  1.5 1) //19
    (-0.5 -1.5 1) //20
    (-0.5 -0.5 1) //21
    (-0.5  0.5 1) //22
    (-0.5  1.5 1) //23
    ( 0.5 -1.5 1) //24
    ( 0.5 -0.5 1) //25
    ( 0.5  0.5 1) //26
    ( 0.5  1.5 1) //27
    ( 1.5 -1.5 1) //28
    ( 1.5 -0.5 1) //29
    ( 1.5  0.5 1) //30
    ( 1.5  1.5 1) //31

    (-5   -5   0) //32
    (-5   -1.4 0) //33
    (-5    1.4 0) //34
    (-5    5   0) //35
    (-1.4 -5   0) //36
    (-1.4 -1.4 0) //37
    (-1.4  1.4 0) //38
    (-1.4  5   0) //39
    ( 1.4 -5   0) //40
    ( 1.4 -1.4 0) //41
    ( 1.4  1.4 0) //42
    ( 1.4  5   0) //43
    (10   -5   0) //44
    (10   -1.4 0) //45
    (10    1.4 0) //46
    (10    5   0) //47
    (-5   -5   1) //48
    (-5   -1.4 1) //49
    (-5    1.4 1) //50
    (-5    5   1) //51
    (-1.4 -5   1) //52
    (-1.4 -1.4 1) //53
    (-1.4  1.4 1) //54
    (-1.4  5   1) //55
    ( 1.4 -5   1) //56
    ( 1.4 -1.4 1) //57
    ( 1.4  1.4 1) //58
    ( 1.4  5   1) //59
    (10   -5   1) //60
    (10   -1.4 1) //61
    (10    1.4 1) //62
    (10    5   1) //63
);

blocks
(
    hex ( 0  4  5  1 16 20 21 17) inner ( 20 20 1) simpleGrading (1 1 1)
    hex ( 1  5  6  2 17 21 22 18) inner ( 20 20 1) simpleGrading (1 1 1)
    hex ( 2  6  7  3 18 22 23 19) inner ( 20 20 1) simpleGrading (1 1 1)

    hex ( 4  8  9  5 20 24 25 21) inner ( 20 20 1) simpleGrading (1 1 1)
    hex ( 6 10 11  7 22 26 27 23) inner ( 20 20 1) simpleGrading (1 1 1)

    hex ( 8 12 13  9 24 28 29 25) inner ( 20 20 1) simpleGrading (1 1 1)
    hex ( 9 13 14 10 25 29 30 26) inner ( 20 20 1) simpleGrading (1 1 1)
    hex (10 14 15 11 26 30 31 27) inner ( 20 20 1) simpleGrading (1 1 1)

    hex (32 36 37 33 48 52 53 49) outer ( 72 72 1) simpleGrading (1 1 1)
    hex (33 37 38 34 49 53 54 50) outer ( 72 56 1) simpleGrading (1 1 1)
    hex (34 38 39 35 50 54 55 51) outer ( 72 72 1) simpleGrading (1 1 1)

    hex (36 40 41 37 52 56 57 53) outer ( 56 72 1) simpleGrading (1 1 1)
    hex (38 42 43 39 54 58 59 55) outer ( 56 72 1) simpleGrading (1 1 1)

    hex (40 44 45 41 56 60 61 57) outer (172 72 1) simpleGrading (1 1 1)
    hex (41 45 46 42 57 61 62 58) outer (172 56 1) simpleGrading (1 1 1)
    hex (42 46 47 43 58 62 63 59) outer (172 72 1) simpleGrading (1 1 1)
);

edges
(
);

boundary
(
    cylinder
    {
        type wall;
        faces
        (
            ( 6  5 21 22)
            ( 5  9 25 21)
            ( 9 10 26 25)
            (10  6 22 26)
        );
    }

    inner
    {
        type bellerophon;
        donorZone outer;
        faces
        (
            ( 1  0 16 17)
            ( 2  1 17 18)
            ( 3  2 18 19)

            (12 13 29 28)
            (13 14 30 29)
            (14 15 31 30)

            (15 11 27 31)
            (11  7 23 27)
            ( 7  3 19 23)

            ( 0  4 20 16)
            ( 4  8 24 20)
            ( 8 12 28 24)
        );
    }

    outer
    {
        type bellerophon;
        donorZone inner;
        faces
        (
            (38 37 53 54)
            (37 41 57 53)
            (41 42 58 57)
            (42 38 54 58)
        );
    }


    inlet
    {
        type patch;
        faces
        (
            (33 32 48 49)
            (34 33 49 50)
            (35 34 50 51)
        );
    }

    outlet
    {
        type patch;
        faces
        (
            (44 45 61 60)
            (45 46 62 61)
            (46 47 63 62)
        );
    }

    sides
    {
        type patch;
        faces
        (
            (47 43 59 63)
            (43 39 55 59)
            (39 35 51 55)

            (32 36 52 48)
            (36 40 56 52)
            (40 44 60 56)
        );
    }

    frontAndBack
    {
        type empty;
        faces
        (
            ( 0  1  5  4)
            ( 1  2  6  5)
            ( 2  3  7  6)

            ( 4  5  9  8)
            ( 6  7 11 10)

            ( 8  9 13 12)
            ( 9 10 14 13)
            (10 11 15 14)

            (20 21 17 16)
            (21 22 18 17)
            (22 23 19 18)

            (24 25 21 20)
            (26 27 23 22)

            (28 29 25 24)
            (29 30 26 25)
            (30 31 27 26)

            (32 33 37 36)
            (33 34 38 37)
            (34 35 39 38)

            (36 37 41 40)
            (38 39 43 42)

            (40 41 45 44)
            (41 42 46 45)
            (42 43 47 46)

            (52 53 49 48)
            (53 54 50 49)
            (54 55 51 50)

            (56 57 53 52)
            (58 59 55 54)

            (60 61 57 56)
            (61 62 58 57)
            (62 63 59 58)
        );
    }

);

mergePatchPairs
(
);

// ************************************************************************* //
