/*--------------------------------*- C++ -*----------------------------------*\
| =========                 |                                                 |
| \\      /  F ield         | OpenFOAM: The Open Source CFD Toolbox           |
|  \\    /   O peration     | Version:  2.1.x                                 |
|   \\  /    A nd           | Web:      www.OpenFOAM.org                      |
|    \\/     M anipulation  |                                                 |
\*---------------------------------------------------------------------------*/
FoamFile
{
    version     2.0;
    format      ascii;
    class       dictionary;
    object      topoSetDict;
}

// * * * * * * * * * * * * * * * * * * * * * * * * * * * * * * * * * * * * * //

actions
(
    {
        name    refineCells1;
        type    cellSet;
        action  new;
        source  boxToCell;
        sourceInfo
        {
            box (4 -4 0) (7 4 1);
        }
    }

    {
        name    refineCells2;
        type    cellSet;
        action  new;
        source  boxToCell;
        sourceInfo
        {
            box (5 -3 0) (6.5 3 1);
        }
    }
);

// ************************************************************************* //
