/*--------------------------------*- C++ -*----------------------------------*\
| =========                 |                                                 |
| \\      /  F ield         | OpenFOAM: The Open Source CFD Toolbox           |
|  \\    /   O peration     | Version:  2.3.0                                 |
|   \\  /    A nd           | Web:      www.OpenFOAM.org                      |
|    \\/     M anipulation  |                                                 |
\*---------------------------------------------------------------------------*/
FoamFile
{
    version     2.0;
    format      ascii;
    class       dictionary;
    object      topoSetDict;
}

// * * * * * * * * * * * * * * * * * * * * * * * * * * * * * * * * * * * * * //

actions
(
    {
        name    holeSource;
        type    cellSet;
        action  new;
        source  cylinderToCell;
        sourceInfo
        {
            p1 (-0.4 0 0);
            p2 (0.4 0 0);
            radius 0.8;
        }
    }

    {
        name    holeSource;
        type    cellSet;
        action  delete;
        source  zoneToCell;
        sourceInfo
        {
            name rotor;
        }
    }
);

// ************************************************************************* //

