/*--------------------------------*- C++ -*----------------------------------*\
| =========                 |                                                 |
| \\      /  F ield         | OpenFOAM: The Open Source CFD Toolbox           |
|  \\    /   O peration     | Version:  2.1.x                                 |
|   \\  /    A nd           | Web:      www.OpenFOAM.org                      |
|    \\/     M anipulation  |                                                 |
\*---------------------------------------------------------------------------*/
FoamFile
{
    version     2.0;
    format      ascii;
    class       dictionary;
    object      blockMeshDict;
}
// * * * * * * * * * * * * * * * * * * * * * * * * * * * * * * * * * * * * * //

convertToMeters 1;

vertices
(
    (-5   -5   0) // 0
    (-5   -0.5 0) // 1
    (-5    0.5 0) // 2
    (-5    5   0) // 3
    (-0.5 -5   0) // 4
    (-0.5 -0.5 0) // 5
    (-0.5  0.5 0) // 6
    (-0.5  5   0) // 7
    ( 0.5 -5   0) // 8
    ( 0.5 -0.5 0) // 9
    ( 0.5  0.5 0) //10
    ( 0.5  5   0) //11
    (10   -5   0) //12
    (10   -0.5 0) //13
    (10    0.5 0) //14
    (10    5   0) //15
    (-5   -5   1) //16
    (-5   -0.5 1) //17
    (-5    0.5 1) //18
    (-5    5   1) //19
    (-0.5 -5   1) //20
    (-0.5 -0.5 1) //21
    (-0.5  0.5 1) //22
    (-0.5  5   1) //23
    ( 0.5 -5   1) //24
    ( 0.5 -0.5 1) //25
    ( 0.5  0.5 1) //26
    ( 0.5  5   1) //27
    (10   -5   1) //28
    (10   -0.5 1) //29
    (10    0.5 1) //30
    (10    5   1) //31
);

blocks
(
    hex ( 0  4  5  1 16 20 21 17) ( 90 90 1) simpleGrading (1 1 1)
    hex ( 1  5  6  2 17 21 22 18) ( 90 20 1) simpleGrading (1 1 1)
    hex ( 2  6  7  3 18 22 23 19) ( 90 90 1) simpleGrading (1 1 1)

    hex ( 4  8  9  5 20 24 25 21) ( 20 90 1) simpleGrading (1 1 1)
    hex ( 6 10 11  7 22 26 27 23) ( 20 90 1) simpleGrading (1 1 1)

    hex ( 8 12 13  9 24 28 29 25) (190 90 1) simpleGrading (1 1 1)
    hex ( 9 13 14 10 25 29 30 26) (190 20 1) simpleGrading (1 1 1)
    hex (10 14 15 11 26 30 31 27) (190 90 1) simpleGrading (1 1 1)
);

edges
(
);

boundary
(
    cylinder
    {
        type wall;
        faces
        (
            ( 6  5 21 22)
            ( 5  9 25 21)
            ( 9 10 26 25)
            (10  6 22 26)
        );
    }

    inlet
    {
        type patch;
        faces
        (
            ( 1  0 16 17)
            ( 2  1 17 18)
            ( 3  2 18 19)
        );
    }

    outlet
    {
        type patch;
        faces
        (
            (12 13 29 28)
            (13 14 30 29)
            (14 15 31 30)
        );
    }

    sides
    {
        type patch;
        faces
        (
            (15 11 27 31)
            (11  7 23 27)
            ( 7  3 19 23)

            ( 0  4 20 16)
            ( 4  8 24 20)
            ( 8 12 28 24)
        );
    }

    frontAndBack
    {
        type empty;
        faces
        (
            ( 0  1  5  4)
            ( 1  2  6  5)
            ( 2  3  7  6)

            ( 4  5  9  8)
            ( 6  7 11 10)

            ( 8  9 13 12)
            ( 9 10 14 13)
            (10 11 15 14)

            (20 21 17 16)
            (21 22 18 17)
            (22 23 19 18)

            (24 25 21 20)
            (26 27 23 22)

            (28 29 25 24)
            (29 30 26 25)
            (30 31 27 26)
        );
    }

);

mergePatchPairs
(
);

// ************************************************************************* //
