/*--------------------------------*- C++ -*----------------------------------*\
| =========                 |                                                 |
| \\      /  F ield         | OpenFOAM: The Open Source CFD Toolbox           |
|  \\    /   O peration     | Version:  2.1.x                                 |
|   \\  /    A nd           | Web:      www.OpenFOAM.org                      |
|    \\/     M anipulation  |                                                 |
\*---------------------------------------------------------------------------*/
FoamFile
{
    version     2.0;
    format      binary;
    class       polyBoundaryMesh;
    location    "constant/polyMesh";
    object      boundary;
}
// * * * * * * * * * * * * * * * * * * * * * * * * * * * * * * * * * * * * * //

5
(
    cylinder
    {
        type            wall;
        nFaces          80;
        startFace       118660;
    }
    inlet
    {
        type            patch;
        nFaces          200;
        startFace       118740;
    }
    outlet
    {
        type            patch;
        nFaces          200;
        startFace       118940;
    }
    sides
    {
        type            patch;
        nFaces          600;
        startFace       119140;
    }
    frontAndBack
    {
        type            empty;
        nFaces          119200;
        startFace       119740;
    }
)

// ************************************************************************* //
