/*--------------------------------*- C++ -*----------------------------------*\
| =========                 |                                                 |
| \\      /  F ield         | OpenFOAM: The Open Source CFD Toolbox           |
|  \\    /   O peration     | Version:  2.2.2                                 |
|   \\  /    A nd           | Web:      www.OpenFOAM.org                      |
|    \\/     M anipulation  |                                                 |
\*---------------------------------------------------------------------------*/
FoamFile
{
    version     2.0;
    format      ascii;
    class       dictionary;
    object      createPatchDict;
}
// * * * * * * * * * * * * * * * * * * * * * * * * * * * * * * * * * * * * * //

pointSync false;

patches
(
    {
        name inner;

        patchInfo
        {
            type            bellerophon;
            donorZone       backgroundZone;
        }

        constructFrom patches;

        patches ( INNER );
    }

    {
        name frontAndBack;

        patchInfo
        {
            type            empty;
        }

        constructFrom patches;

        patches ( EMPTY );
    }

    {
        name wing;

        patchInfo
        {
            type            wall;
        }

        constructFrom patches;

        patches ( WING );
    }
);

// ************************************************************************* //
