/*--------------------------------*- C++ -*----------------------------------*\
| =========                 |                                                 |
| \\      /  F ield         | OpenFOAM: The Open Source CFD Toolbox           |
|  \\    /   O peration     | Version:  2.3.0                                 |
|   \\  /    A nd           | Web:      www.OpenFOAM.org                      |
|    \\/     M anipulation  |                                                 |
\*---------------------------------------------------------------------------*/
FoamFile
{
    version     2.0;
    format      ascii;
    class       volScalarField;
    location    "0";
    object      k;
}
// * * * * * * * * * * * * * * * * * * * * * * * * * * * * * * * * * * * * * //

dimensions      [0 2 -2 0 0 0 0];

internalField   uniform 1.038e-3;

boundaryField
{
    inlet
    {
        type            fixedValue;
        value           $internalField;
    }
    outlet
    {
       type            	inletOutlet;
       inletValue      	$internalField;
       value           	$internalField;
    }
    top
    {
        type            inletOutlet;
        inletValue      $internalField;
        value           $internalField;
    }
    cylinder
    {
        type            kqRWallFunction;
        value           $internalField;
    }
    bottom
    {
        type            slip;
    }
    sides
    {
        type            slip;
    }
    "inner|outer"
    {
        type            bellerophon;
        value           $internalField;
    }
}

// ************************************************************************* //
