/*--------------------------------*- C++ -*----------------------------------*\
| =========                 |                                                 |
| \\      /  F ield         | OpenFOAM: The Open Source CFD Toolbox           |
|  \\    /   O peration     | Version:  2.3.x                                 |
|   \\  /    A nd           | Web:      www.OpenFOAM.org                      |
|    \\/     M anipulation  |                                                 |
\*---------------------------------------------------------------------------*/
FoamFile
{
    version     2.0;
    format      ascii;
    class       polyBoundaryMesh;
    location    "constant/polyMesh";
    object      boundary;
}
// * * * * * * * * * * * * * * * * * * * * * * * * * * * * * * * * * * * * * //

8
(
    cylinder
    {
        type            wall;
        inGroups        1(wall);
        nFaces          19200;
        startFace       18692208;
    }
    inner
    {
        type            bellerophon;
        inGroups        1(bellerophon);
        nFaces          19200;
        startFace       18711408;
        matchTolerance  0.0001;
        transform       unknown;
        donorZone       outer;
    }
    front
    {
        type            cyclic;
        inGroups        1(cyclic);
        nFaces          104928;
        startFace       18730608;
        matchTolerance  0.0001;
        transform       unknown;
        neighbourPatch  back;
    }
    back
    {
        type            cyclic;
        inGroups        1(cyclic);
        nFaces          104928;
        startFace       18835536;
        matchTolerance  0.0001;
        transform       unknown;
        neighbourPatch  front;
    }
    inlet
    {
        type            patch;
        nFaces          240;
        startFace       18940464;
    }
    outlet
    {
        type            patch;
        nFaces          9120;
        startFace       18940704;
    }
    sides
    {
        type            patch;
        nFaces          480;
        startFace       18949824;
    }
    outer
    {
        type            bellerophon;
        inGroups        1(bellerophon);
        nFaces          23040;
        startFace       18950304;
        matchTolerance  0.0001;
        transform       unknown;
        donorZone       inner;
    }
)

// ************************************************************************* //
